Version 4
SHEET 1 1644 1700
WIRE 400 -192 400 -224
WIRE 352 -128 336 -128
WIRE 400 -32 400 -96
WIRE 1328 0 1328 -32
WIRE 1376 0 1328 0
WIRE 1408 0 1376 0
WIRE 720 16 576 16
WIRE 1328 32 1328 0
WIRE -176 48 -176 0
WIRE 976 64 944 64
WIRE 336 80 336 -128
WIRE 400 80 400 48
WIRE 400 80 336 80
WIRE 576 80 576 16
WIRE 592 80 576 80
WIRE 944 80 944 64
WIRE 1104 80 1040 80
WIRE 1120 80 1104 80
WIRE 1216 80 1200 80
WIRE 1264 80 1216 80
WIRE 720 96 720 16
WIRE 720 96 656 96
WIRE 768 96 720 96
WIRE 800 96 768 96
WIRE 912 96 880 96
WIRE 976 96 912 96
WIRE 1216 96 1216 80
WIRE 304 112 288 112
WIRE 400 112 400 80
WIRE 400 112 384 112
WIRE 448 112 400 112
WIRE 592 112 448 112
WIRE 448 128 448 112
WIRE -176 144 -176 128
WIRE -176 144 -224 144
WIRE -224 160 -224 144
WIRE -176 160 -176 144
WIRE -80 160 -112 160
WIRE 32 160 0 160
WIRE 128 160 96 160
WIRE 224 160 192 160
WIRE 192 192 192 160
WIRE 1216 192 1216 160
WIRE 1328 192 1328 128
WIRE 416 208 288 208
WIRE 448 208 448 192
WIRE 448 208 416 208
WIRE 912 208 912 96
WIRE 976 208 912 208
WIRE 1104 208 1104 80
WIRE 1104 208 1056 208
WIRE 416 256 416 208
WIRE -176 288 -176 240
WIRE -112 368 -112 160
WIRE 1104 368 1104 208
WIRE 1104 368 -112 368
FLAG -224 160 0
FLAG -176 0 +15
FLAG -176 288 -15
FLAG 1008 48 +15
FLAG 1008 112 -15
FLAG 624 64 +15
FLAG 624 128 -15
FLAG 944 80 0
FLAG 768 96 ramp
FLAG 400 -224 +15
FLAG 416 256 -15
FLAG 192 272 -15
FLAG 1216 192 0
FLAG 1328 192 0
FLAG 1328 -112 +15
FLAG 1376 0 pulse
SYMBOL voltage -176 144 R0
SYMATTR InstName V1
SYMATTR Value 15
SYMBOL voltage -176 32 R0
SYMATTR InstName V2
SYMATTR Value 15
SYMBOL Opamps\\opamp2 1008 16 R0
SYMATTR InstName U3
SYMATTR Value TL082
SYMBOL Opamps\\opamp2 624 32 R0
SYMATTR InstName U1
SYMATTR Value TL082
SYMBOL res 896 80 R90
WINDOW 0 0 56 VBottom 2
WINDOW 3 32 56 VTop 2
SYMATTR InstName R1
SYMATTR Value 6k8
SYMBOL res 1072 192 R90
WINDOW 0 0 56 VBottom 2
WINDOW 3 32 56 VTop 2
SYMATTR InstName R2
SYMATTR Value 10k
SYMBOL cap 432 128 R0
SYMATTR InstName C1
SYMATTR Value 10n
SYMBOL res 16 144 R90
WINDOW 0 0 56 VBottom 2
WINDOW 3 32 56 VTop 2
SYMATTR InstName R3
SYMATTR Value 10k
SYMBOL res 384 -48 R0
SYMATTR InstName R4
SYMATTR Value 330
SYMBOL njf 352 -192 R0
SYMATTR InstName J1
SYMATTR Value J111
SYMBOL npn 224 112 R0
SYMATTR InstName Q1
SYMATTR Value 2N2222
SYMBOL diode 32 176 R270
WINDOW 0 32 32 VTop 2
WINDOW 3 0 32 VBottom 2
SYMATTR InstName D2
SYMATTR Value 1N4148
SYMBOL diode 128 176 R270
WINDOW 0 32 32 VTop 2
WINDOW 3 0 32 VBottom 2
SYMATTR InstName D3
SYMATTR Value 1N4148
SYMBOL res 176 176 R0
SYMATTR InstName R5
SYMATTR Value 100k
SYMBOL npn 1264 32 R0
SYMATTR InstName Q2
SYMATTR Value 2N2222
SYMBOL diode 1232 160 R180
WINDOW 0 24 64 Left 2
WINDOW 3 24 0 Left 2
SYMATTR InstName D1
SYMATTR Value 1N4148
SYMBOL res 1216 64 R90
WINDOW 0 0 56 VBottom 2
WINDOW 3 32 56 VTop 2
SYMATTR InstName R6
SYMATTR Value 10k
SYMBOL res 1312 -128 R0
SYMATTR InstName R7
SYMATTR Value 100k
SYMBOL res 400 96 R90
WINDOW 0 0 56 VBottom 2
WINDOW 3 32 56 VTop 2
SYMATTR InstName R8
SYMATTR Value 470
TEXT -248 368 Left 2 !.tran 2ms startup
TEXT -248 536 Left 2 !* TL082 OPERATIONAL AMPLIFIER "MACROMODEL" SUBCIRCUIT\n* CREATED USING PARTS RELEASE 4.01 ON 06/16/89 AT 13:08\n* (REV N/A)      SUPPLY VOLTAGE: +/-15V\n* CONNECTIONS:   NON-INVERTING INPUT\n*                | INVERTING INPUT\n*                | | POSITIVE POWER SUPPLY\n*                | | | NEGATIVE POWER SUPPLY\n*                | | | | OUTPUT\n*                | | | | |\n.SUBCKT TL082    1 2 3 4 5\n*\n  C1   11 12 3.498E-12\n  C2    6  7 15.00E-12\n  DC    5 53 DX\n  DE   54  5 DX\n  DLP  90 91 DX\n  DLN  92 90 DX\n  DP    4  3 DX\n  EGND 99  0 POLY(2) (3,0) (4,0) 0 .5 .5\n  FB    7 99 POLY(5) VB VC VE VLP VLN 0 4.715E6 -5E6 5E6 5E6 -5E6\n  GA    6  0 11 12 282.8E-6\n  GCM   0  6 10 99 8.942E-9\n  ISS   3 10 DC 195.0E-6\n  HLIM 90  0 VLIM 1K\n  J1   11  2 10 JX\n  J2   12  1 10 JX\n  R2    6  9 100.0E3\n  RD1   4 11 3.536E3\n  RD2   4 12 3.536E3\n  RO1   8  5 150\n  RO2   7 99 150\n  RP    3  4 2.143E3\n  RSS  10 99 1.026E6\n  VB    9  0 DC 0\n  VC    3 53 DC 2.200\n  VE   54  4 DC 2.200\n  VLIM  7  8 DC 0\n  VLP  91  0 DC 25\n  VLN   0 92 DC 25\n.MODEL DX D(IS=800.0E-18)\n.MODEL JX PJF(IS=15.00E-12 BETA=270.1E-6 VTO=-1)\n.ENDS
